<?xml version='1.0' encoding='utf-8'?>
<nodes>
  <node id="n11" x="-1000.0" y="1000.0" type="traffic_light" />
  <node id="n21" x="-1000.0" y="500.0" type="traffic_light" />
  <node id="n31" x="-1000.0" y="0.0" type="traffic_light" />
  <node id="n41" x="-1000.0" y="-500.0" type="traffic_light" />
  <node id="n51" x="-1000.0" y="-1000.0" type="traffic_light" />
  <node id="n12" x="-500.0" y="1000.0" type="traffic_light" />
  <node id="n22" x="-500.0" y="500.0" type="traffic_light" />
  <node id="n32" x="-500.0" y="0.0" type="traffic_light" />
  <node id="n42" x="-500.0" y="-500.0" type="traffic_light" />
  <node id="n52" x="-500.0" y="-1000.0" type="traffic_light" />
  <node id="n13" x="0.0" y="1000.0" type="traffic_light" />
  <node id="n23" x="0.0" y="500.0" type="traffic_light" />
  <node id="n33" x="0.0" y="0.0" type="traffic_light" />
  <node id="n43" x="0.0" y="-500.0" type="traffic_light" />
  <node id="n53" x="0.0" y="-1000.0" type="traffic_light" />
  <node id="n14" x="500.0" y="1000.0" type="traffic_light" />
  <node id="n24" x="500.0" y="500.0" type="traffic_light" />
  <node id="n34" x="500.0" y="0.0" type="traffic_light" />
  <node id="n44" x="500.0" y="-500.0" type="traffic_light" />
  <node id="n54" x="500.0" y="-1000.0" type="traffic_light" />
  <node id="n15" x="1000.0" y="1000.0" type="traffic_light" />
  <node id="n25" x="1000.0" y="500.0" type="traffic_light" />
  <node id="n35" x="1000.0" y="0.0" type="traffic_light" />
  <node id="n45" x="1000.0" y="-500.0" type="traffic_light" />
  <node id="n55" x="1000.0" y="-1000.0" type="traffic_light" />
</nodes>
