<?xml version="1.0" encoding="UTF-8"?>

<!-- generated on 2023-03-25 14:41:40 by Eclipse SUMO netconvert Version 1.12.0
<configuration xmlns:xsi="http://www.w3.org/2001/XMLSchema-instance" xsi:noNamespaceSchemaLocation="http://sumo.dlr.de/xsd/netconvertConfiguration.xsd">

    <input>
        <node-files value="filab.nod.xml"/>
        <edge-files value="filab.edg.xml"/>
        <type-files value="filab.type.xml"/>
    </input>

    <output>
        <output-file value="filab.net.xml"/>
    </output>

    <report>
        <aggregate-warnings value="5"/>
    </report>

</configuration>
-->

<net version="1.9" junctionCornerDetail="5" limitTurnSpeed="5.50" xmlns:xsi="http://www.w3.org/2001/XMLSchema-instance" xsi:noNamespaceSchemaLocation="http://sumo.dlr.de/xsd/net_file.xsd">

    <location netOffset="1000.00,1000.00" convBoundary="0.00,0.00,2000.00,2000.00" origBoundary="-1000.00,-1000.00,1000.00,1000.00" projParameter="!"/>

    <type id="normal" priority="1" numLanes="4" speed="60.00"/>

    <edge id=":n11_0" function="internal">
        <lane id=":n11_0_0" index="0" speed="12.92" length="38.71" shape="12.80,2011.20 2.30,2009.70 -5.20,2005.20 -9.70,1997.70 -11.20,1987.20"/>
        <lane id=":n11_0_1" index="1" speed="12.06" length="33.55" shape="12.80,2008.00 3.70,2006.70 -2.80,2002.80 -6.70,1996.30 -8.00,1987.20"/>
        <lane id=":n11_0_2" index="2" speed="11.12" length="28.38" shape="12.80,2004.80 5.10,2003.70 -0.40,2000.40 -3.70,1994.90 -4.80,1987.20"/>
        <lane id=":n11_0_3" index="3" speed="10.10" length="23.22" shape="12.80,2001.60 6.50,2000.70 2.00,1998.00 -0.70,1993.50 -1.60,1987.20"/>
    </edge>
    <edge id=":n11_4" function="internal">
        <lane id=":n11_4_0" index="0" speed="3.90" length="2.58" shape="11.20,1987.20 11.30,1987.90 11.60,1988.40 12.10,1988.70 12.80,1988.80"/>
        <lane id=":n11_4_1" index="1" speed="6.08" length="7.74" shape="8.00,1987.20 8.30,1989.30 9.20,1990.80 10.70,1991.70 12.80,1992.00"/>
        <lane id=":n11_4_2" index="2" speed="7.66" length="12.90" shape="4.80,1987.20 5.30,1990.70 6.80,1993.20 9.30,1994.70 12.80,1995.20"/>
        <lane id=":n11_4_3" index="3" speed="8.96" length="18.06" shape="1.60,1987.20 2.30,1992.10 4.40,1995.60 7.90,1997.70 12.80,1998.40"/>
    </edge>
    <edge id=":n12_0" function="internal">
        <lane id=":n12_0_0" index="0" speed="60.00" length="33.60" shape="516.80,2011.20 483.20,2011.20"/>
        <lane id=":n12_0_1" index="1" speed="60.00" length="33.60" shape="516.80,2008.00 483.20,2008.00"/>
        <lane id=":n12_0_2" index="2" speed="60.00" length="33.60" shape="516.80,2004.80 483.20,2004.80"/>
        <lane id=":n12_0_3" index="3" speed="60.00" length="33.60" shape="516.80,2001.60 483.20,2001.60"/>
    </edge>
    <edge id=":n12_4" function="internal">
        <lane id=":n12_4_0" index="0" speed="11.84" length="5.85" shape="516.80,2001.60 510.99,2000.89"/>
        <lane id=":n12_4_1" index="1" speed="11.36" length="5.01" shape="516.80,2001.60 511.84,2000.89"/>
    </edge>
    <edge id=":n12_6" function="internal">
        <lane id=":n12_6_0" index="0" speed="3.65" length="1.44" shape="516.80,2001.60 515.60,2000.80"/>
    </edge>
    <edge id=":n12_20" function="internal">
        <lane id=":n12_20_0" index="0" speed="11.84" length="26.45" shape="510.99,2000.89 507.35,2000.45 500.60,1997.00 496.55,1991.25 495.20,1983.20"/>
    </edge>
    <edge id=":n12_21" function="internal">
        <lane id=":n12_21_0" index="0" speed="11.36" length="24.66" shape="511.84,2000.89 508.75,2000.45 503.00,1997.00 499.55,1991.25 498.40,1983.20"/>
    </edge>
    <edge id=":n12_22" function="internal">
        <lane id=":n12_22_0" index="0" speed="3.65" length="3.23" shape="515.60,2000.80 515.20,2000.00 515.60,1999.20 516.80,1998.40"/>
    </edge>
    <edge id=":n12_7" function="internal">
        <lane id=":n12_7_0" index="0" speed="6.51" length="9.03" shape="511.20,1983.20 511.55,1985.65 512.60,1987.40 514.35,1988.45 516.80,1988.80"/>
        <lane id=":n12_7_1" index="1" speed="8.00" length="14.19" shape="508.00,1983.20 508.55,1987.05 510.20,1989.80 512.95,1991.45 516.80,1992.00"/>
        <lane id=":n12_7_2" index="2" speed="9.26" length="19.35" shape="504.80,1983.20 505.55,1988.45 507.80,1992.20 511.55,1994.45 516.80,1995.20"/>
    </edge>
    <edge id=":n12_10" function="internal">
        <lane id=":n12_10_0" index="0" speed="11.84" length="32.30" shape="501.60,1983.20 500.45,1992.65 497.00,1999.40 491.25,2003.45 483.20,2004.80"/>
        <lane id=":n12_10_1" index="1" speed="11.36" length="29.67" shape="501.60,1983.20 500.45,1991.25 497.00,1997.00 491.25,2000.45 483.20,2001.60"/>
    </edge>
    <edge id=":n12_12" function="internal">
        <lane id=":n12_12_0" index="0" speed="3.65" length="2.34" shape="501.60,1983.20 500.80,1984.40 500.00,1984.80"/>
    </edge>
    <edge id=":n12_23" function="internal">
        <lane id=":n12_23_0" index="0" speed="3.65" length="2.34" shape="500.00,1984.80 499.20,1984.40 498.40,1983.20"/>
    </edge>
    <edge id=":n12_13" function="internal">
        <lane id=":n12_13_0" index="0" speed="6.51" length="9.03" shape="483.20,1988.80 485.65,1988.45 487.40,1987.40 488.45,1985.65 488.80,1983.20"/>
        <lane id=":n12_13_1" index="1" speed="7.33" length="11.73" shape="483.20,1988.80 487.05,1988.45 489.80,1987.40 491.45,1985.65 492.00,1983.20"/>
    </edge>
    <edge id=":n12_15" function="internal">
        <lane id=":n12_15_0" index="0" speed="60.00" length="33.60" shape="483.20,1988.80 516.80,1988.80"/>
        <lane id=":n12_15_1" index="1" speed="60.00" length="33.60" shape="483.20,1992.00 516.80,1992.00"/>
        <lane id=":n12_15_2" index="2" speed="60.00" length="33.60" shape="483.20,1995.20 516.80,1995.20"/>
        <lane id=":n12_15_3" index="3" speed="60.00" length="33.60" shape="483.20,1998.40 516.80,1998.40"/>
    </edge>
    <edge id=":n12_19" function="internal">
        <lane id=":n12_19_0" index="0" speed="3.65" length="1.44" shape="483.20,1998.40 484.40,1999.20"/>
    </edge>
    <edge id=":n12_24" function="internal">
        <lane id=":n12_24_0" index="0" speed="3.65" length="3.23" shape="484.40,1999.20 484.80,2000.00 484.40,2000.80 483.20,2001.60"/>
    </edge>
    <edge id=":n13_0" function="internal">
        <lane id=":n13_0_0" index="0" speed="60.00" length="33.60" shape="1016.80,2011.20 983.20,2011.20"/>
        <lane id=":n13_0_1" index="1" speed="60.00" length="33.60" shape="1016.80,2008.00 983.20,2008.00"/>
        <lane id=":n13_0_2" index="2" speed="60.00" length="33.60" shape="1016.80,2004.80 983.20,2004.80"/>
        <lane id=":n13_0_3" index="3" speed="60.00" length="33.60" shape="1016.80,2001.60 983.20,2001.60"/>
    </edge>
    <edge id=":n13_4" function="internal">
        <lane id=":n13_4_0" index="0" speed="11.84" length="5.85" shape="1016.80,2001.60 1010.99,2000.89"/>
        <lane id=":n13_4_1" index="1" speed="11.36" length="5.01" shape="1016.80,2001.60 1011.84,2000.89"/>
    </edge>
    <edge id=":n13_6" function="internal">
        <lane id=":n13_6_0" index="0" speed="3.65" length="1.44" shape="1016.80,2001.60 1015.60,2000.80"/>
    </edge>
    <edge id=":n13_20" function="internal">
        <lane id=":n13_20_0" index="0" speed="11.84" length="26.45" shape="1010.99,2000.89 1007.35,2000.45 1000.60,1997.00 996.55,1991.25 995.20,1983.20"/>
    </edge>
    <edge id=":n13_21" function="internal">
        <lane id=":n13_21_0" index="0" speed="11.36" length="24.66" shape="1011.84,2000.89 1008.75,2000.45 1003.00,1997.00 999.55,1991.25 998.40,1983.20"/>
    </edge>
    <edge id=":n13_22" function="internal">
        <lane id=":n13_22_0" index="0" speed="3.65" length="3.23" shape="1015.60,2000.80 1015.20,2000.00 1015.60,1999.20 1016.80,1998.40"/>
    </edge>
    <edge id=":n13_7" function="internal">
        <lane id=":n13_7_0" index="0" speed="6.51" length="9.03" shape="1011.20,1983.20 1011.55,1985.65 1012.60,1987.40 1014.35,1988.45 1016.80,1988.80"/>
        <lane id=":n13_7_1" index="1" speed="8.00" length="14.19" shape="1008.00,1983.20 1008.55,1987.05 1010.20,1989.80 1012.95,1991.45 1016.80,1992.00"/>
        <lane id=":n13_7_2" index="2" speed="9.26" length="19.35" shape="1004.80,1983.20 1005.55,1988.45 1007.80,1992.20 1011.55,1994.45 1016.80,1995.20"/>
    </edge>
    <edge id=":n13_10" function="internal">
        <lane id=":n13_10_0" index="0" speed="11.84" length="32.30" shape="1001.60,1983.20 1000.45,1992.65 997.00,1999.40 991.25,2003.45 983.20,2004.80"/>
        <lane id=":n13_10_1" index="1" speed="11.36" length="29.67" shape="1001.60,1983.20 1000.45,1991.25 997.00,1997.00 991.25,2000.45 983.20,2001.60"/>
    </edge>
    <edge id=":n13_12" function="internal">
        <lane id=":n13_12_0" index="0" speed="3.65" length="2.34" shape="1001.60,1983.20 1000.80,1984.40 1000.00,1984.80"/>
    </edge>
    <edge id=":n13_23" function="internal">
        <lane id=":n13_23_0" index="0" speed="3.65" length="2.34" shape="1000.00,1984.80 999.20,1984.40 998.40,1983.20"/>
    </edge>
    <edge id=":n13_13" function="internal">
        <lane id=":n13_13_0" index="0" speed="6.51" length="9.03" shape="983.20,1988.80 985.65,1988.45 987.40,1987.40 988.45,1985.65 988.80,1983.20"/>
        <lane id=":n13_13_1" index="1" speed="7.33" length="11.73" shape="983.20,1988.80 987.05,1988.45 989.80,1987.40 991.45,1985.65 992.00,1983.20"/>
    </edge>
    <edge id=":n13_15" function="internal">
        <lane id=":n13_15_0" index="0" speed="60.00" length="33.60" shape="983.20,1988.80 1016.80,1988.80"/>
        <lane id=":n13_15_1" index="1" speed="60.00" length="33.60" shape="983.20,1992.00 1016.80,1992.00"/>
        <lane id=":n13_15_2" index="2" speed="60.00" length="33.60" shape="983.20,1995.20 1016.80,1995.20"/>
        <lane id=":n13_15_3" index="3" speed="60.00" length="33.60" shape="983.20,1998.40 1016.80,1998.40"/>
    </edge>
    <edge id=":n13_19" function="internal">
        <lane id=":n13_19_0" index="0" speed="3.65" length="1.44" shape="983.20,1998.40 984.40,1999.20"/>
    </edge>
    <edge id=":n13_24" function="internal">
        <lane id=":n13_24_0" index="0" speed="3.65" length="3.23" shape="984.40,1999.20 984.80,2000.00 984.40,2000.80 983.20,2001.60"/>
    </edge>
    <edge id=":n14_0" function="internal">
        <lane id=":n14_0_0" index="0" speed="60.00" length="33.60" shape="1516.80,2011.20 1483.20,2011.20"/>
        <lane id=":n14_0_1" index="1" speed="60.00" length="33.60" shape="1516.80,2008.00 1483.20,2008.00"/>
        <lane id=":n14_0_2" index="2" speed="60.00" length="33.60" shape="1516.80,2004.80 1483.20,2004.80"/>
        <lane id=":n14_0_3" index="3" speed="60.00" length="33.60" shape="1516.80,2001.60 1483.20,2001.60"/>
    </edge>
    <edge id=":n14_4" function="internal">
        <lane id=":n14_4_0" index="0" speed="11.84" length="5.85" shape="1516.80,2001.60 1510.99,2000.89"/>
        <lane id=":n14_4_1" index="1" speed="11.36" length="5.01" shape="1516.80,2001.60 1511.84,2000.89"/>
    </edge>
    <edge id=":n14_6" function="internal">
        <lane id=":n14_6_0" index="0" speed="3.65" length="1.44" shape="1516.80,2001.60 1515.60,2000.80"/>
    </edge>
    <edge id=":n14_20" function="internal">
        <lane id=":n14_20_0" index="0" speed="11.84" length="26.45" shape="1510.99,2000.89 1507.35,2000.45 1500.60,1997.00 1496.55,1991.25 1495.20,1983.20"/>
    </edge>
    <edge id=":n14_21" function="internal">
        <lane id=":n14_21_0" index="0" speed="11.36" length="24.66" shape="1511.84,2000.89 1508.75,2000.45 1503.00,1997.00 1499.55,1991.25 1498.40,1983.20"/>
    </edge>
    <edge id=":n14_22" function="internal">
        <lane id=":n14_22_0" index="0" speed="3.65" length="3.23" shape="1515.60,2000.80 1515.20,2000.00 1515.60,1999.20 1516.80,1998.40"/>
    </edge>
    <edge id=":n14_7" function="internal">
        <lane id=":n14_7_0" index="0" speed="6.51" length="9.03" shape="1511.20,1983.20 1511.55,1985.65 1512.60,1987.40 1514.35,1988.45 1516.80,1988.80"/>
        <lane id=":n14_7_1" index="1" speed="8.00" length="14.19" shape="1508.00,1983.20 1508.55,1987.05 1510.20,1989.80 1512.95,1991.45 1516.80,1992.00"/>
        <lane id=":n14_7_2" index="2" speed="9.26" length="19.35" shape="1504.80,1983.20 1505.55,1988.45 1507.80,1992.20 1511.55,1994.45 1516.80,1995.20"/>
    </edge>
    <edge id=":n14_10" function="internal">
        <lane id=":n14_10_0" index="0" speed="11.84" length="32.30" shape="1501.60,1983.20 1500.45,1992.65 1497.00,1999.40 1491.25,2003.45 1483.20,2004.80"/>
        <lane id=":n14_10_1" index="1" speed="11.36" length="29.67" shape="1501.60,1983.20 1500.45,1991.25 1497.00,1997.00 1491.25,2000.45 1483.20,2001.60"/>
    </edge>
    <edge id=":n14_12" function="internal">
        <lane id=":n14_12_0" index="0" speed="3.65" length="2.34" shape="1501.60,1983.20 1500.80,1984.40 1500.00,1984.80"/>
    </edge>
    <edge id=":n14_23" function="internal">
        <lane id=":n14_23_0" index="0" speed="3.65" length="2.34" shape="1500.00,1984.80 1499.20,1984.40 1498.40,1983.20"/>
    </edge>
    <edge id=":n14_13" function="internal">
        <lane id=":n14_13_0" index="0" speed="6.51" length="9.03" shape="1483.20,1988.80 1485.65,1988.45 1487.40,1987.40 1488.45,1985.65 1488.80,1983.20"/>
        <lane id=":n14_13_1" index="1" speed="7.33" length="11.73" shape="1483.20,1988.80 1487.05,1988.45 1489.80,1987.40 1491.45,1985.65 1492.00,1983.20"/>
    </edge>
    <edge id=":n14_15" function="internal">
        <lane id=":n14_15_0" index="0" speed="60.00" length="33.60" shape="1483.20,1988.80 1516.80,1988.80"/>
        <lane id=":n14_15_1" index="1" speed="60.00" length="33.60" shape="1483.20,1992.00 1516.80,1992.00"/>
        <lane id=":n14_15_2" index="2" speed="60.00" length="33.60" shape="1483.20,1995.20 1516.80,1995.20"/>
        <lane id=":n14_15_3" index="3" speed="60.00" length="33.60" shape="1483.20,1998.40 1516.80,1998.40"/>
    </edge>
    <edge id=":n14_19" function="internal">
        <lane id=":n14_19_0" index="0" speed="3.65" length="1.44" shape="1483.20,1998.40 1484.40,1999.20"/>
    </edge>
    <edge id=":n14_24" function="internal">
        <lane id=":n14_24_0" index="0" speed="3.65" length="3.23" shape="1484.40,1999.20 1484.80,2000.00 1484.40,2000.80 1483.20,2001.60"/>
    </edge>
    <edge id=":n15_0" function="internal">
        <lane id=":n15_0_0" index="0" speed="12.92" length="38.71" shape="2011.20,1987.20 2009.70,1997.70 2005.20,2005.20 1997.70,2009.70 1987.20,2011.20"/>
        <lane id=":n15_0_1" index="1" speed="12.06" length="33.55" shape="2008.00,1987.20 2006.70,1996.30 2002.80,2002.80 1996.30,2006.70 1987.20,2008.00"/>
        <lane id=":n15_0_2" index="2" speed="11.12" length="28.38" shape="2004.80,1987.20 2003.70,1994.90 2000.40,2000.40 1994.90,2003.70 1987.20,2004.80"/>
        <lane id=":n15_0_3" index="3" speed="10.10" length="23.22" shape="2001.60,1987.20 2000.70,1993.50 1998.00,1998.00 1993.50,2000.70 1987.20,2001.60"/>
    </edge>
    <edge id=":n15_4" function="internal">
        <lane id=":n15_4_0" index="0" speed="3.90" length="2.58" shape="1987.20,1988.80 1987.90,1988.70 1988.40,1988.40 1988.70,1987.90 1988.80,1987.20"/>
        <lane id=":n15_4_1" index="1" speed="6.08" length="7.74" shape="1987.20,1992.00 1989.30,1991.70 1990.80,1990.80 1991.70,1989.30 1992.00,1987.20"/>
        <lane id=":n15_4_2" index="2" speed="7.66" length="12.90" shape="1987.20,1995.20 1990.70,1994.70 1993.20,1993.20 1994.70,1990.70 1995.20,1987.20"/>
        <lane id=":n15_4_3" index="3" speed="8.96" length="18.06" shape="1987.20,1998.40 1992.10,1997.70 1995.60,1995.60 1997.70,1992.10 1998.40,1987.20"/>
    </edge>
    <edge id=":n21_0" function="internal">
        <lane id=":n21_0_0" index="0" speed="60.00" length="33.60" shape="-11.20,1516.80 -11.20,1483.20"/>
        <lane id=":n21_0_1" index="1" speed="60.00" length="33.60" shape="-8.00,1516.80 -8.00,1483.20"/>
        <lane id=":n21_0_2" index="2" speed="60.00" length="33.60" shape="-4.80,1516.80 -4.80,1483.20"/>
        <lane id=":n21_0_3" index="3" speed="60.00" length="33.60" shape="-1.60,1516.80 -1.60,1483.20"/>
    </edge>
    <edge id=":n21_4" function="internal">
        <lane id=":n21_4_0" index="0" speed="11.84" length="5.85" shape="-1.60,1516.80 -0.89,1510.99"/>
        <lane id=":n21_4_1" index="1" speed="11.36" length="5.01" shape="-1.60,1516.80 -0.89,1511.84"/>
    </edge>
    <edge id=":n21_6" function="internal">
        <lane id=":n21_6_0" index="0" speed="3.65" length="1.44" shape="-1.60,1516.80 -0.80,1515.60"/>
    </edge>
    <edge id=":n21_20" function="internal">
        <lane id=":n21_20_0" index="0" speed="11.84" length="26.45" shape="-0.89,1510.99 -0.45,1507.35 3.00,1500.60 8.75,1496.55 16.80,1495.20"/>
    </edge>
    <edge id=":n21_21" function="internal">
        <lane id=":n21_21_0" index="0" speed="11.36" length="24.66" shape="-0.89,1511.84 -0.45,1508.75 3.00,1503.00 8.75,1499.55 16.80,1498.40"/>
    </edge>
    <edge id=":n21_22" function="internal">
        <lane id=":n21_22_0" index="0" speed="3.65" length="3.23" shape="-0.80,1515.60 0.00,1515.20 0.80,1515.60 1.60,1516.80"/>
    </edge>
    <edge id=":n21_7" function="internal">
        <lane id=":n21_7_0" index="0" speed="6.51" length="9.03" shape="16.80,1511.20 14.35,1511.55 12.60,1512.60 11.55,1514.35 11.20,1516.80"/>
        <lane id=":n21_7_1" index="1" speed="8.00" length="14.19" shape="16.80,1508.00 12.95,1508.55 10.20,1510.20 8.55,1512.95 8.00,1516.80"/>
        <lane id=":n21_7_2" index="2" speed="9.26" length="19.35" shape="16.80,1504.80 11.55,1505.55 7.80,1507.80 5.55,1511.55 4.80,1516.80"/>
    </edge>
    <edge id=":n21_10" function="internal">
        <lane id=":n21_10_0" index="0" speed="11.84" length="32.30" shape="16.80,1501.60 7.35,1500.45 0.60,1497.00 -3.45,1491.25 -4.80,1483.20"/>
        <lane id=":n21_10_1" index="1" speed="11.36" length="29.67" shape="16.80,1501.60 8.75,1500.45 3.00,1497.00 -0.45,1491.25 -1.60,1483.20"/>
    </edge>
    <edge id=":n21_12" function="internal">
        <lane id=":n21_12_0" index="0" speed="3.65" length="2.34" shape="16.80,1501.60 15.60,1500.80 15.20,1500.00"/>
    </edge>
    <edge id=":n21_23" function="internal">
        <lane id=":n21_23_0" index="0" speed="3.65" length="2.34" shape="15.20,1500.00 15.60,1499.20 16.80,1498.40"/>
    </edge>
    <edge id=":n21_13" function="internal">
        <lane id=":n21_13_0" index="0" speed="6.51" length="9.03" shape="11.20,1483.20 11.55,1485.65 12.60,1487.40 14.35,1488.45 16.80,1488.80"/>
        <lane id=":n21_13_1" index="1" speed="7.33" length="11.73" shape="11.20,1483.20 11.55,1487.05 12.60,1489.80 14.35,1491.45 16.80,1492.00"/>
    </edge>
    <edge id=":n21_15" function="internal">
        <lane id=":n21_15_0" index="0" speed="60.00" length="33.60" shape="11.20,1483.20 11.20,1516.80"/>
        <lane id=":n21_15_1" index="1" speed="60.00" length="33.60" shape="8.00,1483.20 8.00,1516.80"/>
        <lane id=":n21_15_2" index="2" speed="60.00" length="33.60" shape="4.80,1483.20 4.80,1516.80"/>
        <lane id=":n21_15_3" index="3" speed="60.00" length="33.60" shape="1.60,1483.20 1.60,1516.80"/>
    </edge>
    <edge id=":n21_19" function="internal">
        <lane id=":n21_19_0" index="0" speed="3.65" length="1.44" shape="1.60,1483.20 0.80,1484.40"/>
    </edge>
    <edge id=":n21_24" function="internal">
        <lane id=":n21_24_0" index="0" speed="3.65" length="3.23" shape="0.80,1484.40 0.00,1484.80 -0.80,1484.40 -1.60,1483.20"/>
    </edge>
    <edge id=":n22_0" function="internal">
        <lane id=":n22_0_0" index="0" speed="6.51" length="9.03" shape="488.80,1516.80 488.45,1514.35 487.40,1512.60 485.65,1511.55 483.20,1511.20"/>
    </edge>
    <edge id=":n22_1" function="internal">
        <lane id=":n22_1_0" index="0" speed="60.00" length="33.60" shape="488.80,1516.80 488.80,1483.20"/>
        <lane id=":n22_1_1" index="1" speed="60.00" length="33.60" shape="492.00,1516.80 492.00,1483.20"/>
        <lane id=":n22_1_2" index="2" speed="60.00" length="33.60" shape="495.20,1516.80 495.20,1483.20"/>
        <lane id=":n22_1_3" index="3" speed="60.00" length="33.60" shape="498.40,1516.80 498.40,1483.20"/>
    </edge>
    <edge id=":n22_5" function="internal">
        <lane id=":n22_5_0" index="0" speed="11.36" length="5.01" shape="498.40,1516.80 499.11,1511.84"/>
    </edge>
    <edge id=":n22_6" function="internal">
        <lane id=":n22_6_0" index="0" speed="3.65" length="1.44" shape="498.40,1516.80 499.20,1515.60"/>
    </edge>
    <edge id=":n22_28" function="internal">
        <lane id=":n22_28_0" index="0" speed="11.36" length="24.66" shape="499.11,1511.84 499.55,1508.75 503.00,1503.00 508.75,1499.55 516.80,1498.40"/>
    </edge>
    <edge id=":n22_29" function="internal">
        <lane id=":n22_29_0" index="0" speed="3.65" length="3.23" shape="499.20,1515.60 500.00,1515.20 500.80,1515.60 501.60,1516.80"/>
    </edge>
    <edge id=":n22_7" function="internal">
        <lane id=":n22_7_0" index="0" speed="6.51" length="9.03" shape="516.80,1511.20 514.35,1511.55 512.60,1512.60 511.55,1514.35 511.20,1516.80"/>
    </edge>
    <edge id=":n22_8" function="internal">
        <lane id=":n22_8_0" index="0" speed="60.00" length="33.60" shape="516.80,1511.20 483.20,1511.20"/>
        <lane id=":n22_8_1" index="1" speed="60.00" length="33.60" shape="516.80,1508.00 483.20,1508.00"/>
        <lane id=":n22_8_2" index="2" speed="60.00" length="33.60" shape="516.80,1504.80 483.20,1504.80"/>
        <lane id=":n22_8_3" index="3" speed="60.00" length="33.60" shape="516.80,1501.60 483.20,1501.60"/>
    </edge>
    <edge id=":n22_12" function="internal">
        <lane id=":n22_12_0" index="0" speed="11.36" length="5.01" shape="516.80,1501.60 511.84,1500.89"/>
    </edge>
    <edge id=":n22_13" function="internal">
        <lane id=":n22_13_0" index="0" speed="3.65" length="1.44" shape="516.80,1501.60 515.60,1500.80"/>
    </edge>
    <edge id=":n22_30" function="internal">
        <lane id=":n22_30_0" index="0" speed="11.36" length="24.66" shape="511.84,1500.89 508.75,1500.45 503.00,1497.00 499.55,1491.25 498.40,1483.20"/>
    </edge>
    <edge id=":n22_31" function="internal">
        <lane id=":n22_31_0" index="0" speed="3.65" length="3.23" shape="515.60,1500.80 515.20,1500.00 515.60,1499.20 516.80,1498.40"/>
    </edge>
    <edge id=":n22_14" function="internal">
        <lane id=":n22_14_0" index="0" speed="6.51" length="9.03" shape="511.20,1483.20 511.55,1485.65 512.60,1487.40 514.35,1488.45 516.80,1488.80"/>
    </edge>
    <edge id=":n22_15" function="internal">
        <lane id=":n22_15_0" index="0" speed="60.00" length="33.60" shape="511.20,1483.20 511.20,1516.80"/>
        <lane id=":n22_15_1" index="1" speed="60.00" length="33.60" shape="508.00,1483.20 508.00,1516.80"/>
        <lane id=":n22_15_2" index="2" speed="60.00" length="33.60" shape="504.80,1483.20 504.80,1516.80"/>
        <lane id=":n22_15_3" index="3" speed="60.00" length="33.60" shape="501.60,1483.20 501.60,1516.80"/>
    </edge>
    <edge id=":n22_19" function="internal">
        <lane id=":n22_19_0" index="0" speed="11.36" length="5.01" shape="501.60,1483.20 500.89,1488.16"/>
    </edge>
    <edge id=":n22_20" function="internal">
        <lane id=":n22_20_0" index="0" speed="3.65" length="1.44" shape="501.60,1483.20 500.80,1484.40"/>
    </edge>
    <edge id=":n22_32" function="internal">
        <lane id=":n22_32_0" index="0" speed="11.36" length="24.66" shape="500.89,1488.16 500.45,1491.25 497.00,1497.00 491.25,1500.45 483.20,1501.60"/>
    </edge>
    <edge id=":n22_33" function="internal">
        <lane id=":n22_33_0" index="0" speed="3.65" length="3.23" shape="500.80,1484.40 500.00,1484.80 499.20,1484.40 498.40,1483.20"/>
    </edge>
    <edge id=":n22_21" function="internal">
        <lane id=":n22_21_0" index="0" speed="6.51" length="9.03" shape="483.20,1488.80 485.65,1488.45 487.40,1487.40 488.45,1485.65 488.80,1483.20"/>
    </edge>
    <edge id=":n22_22" function="internal">
        <lane id=":n22_22_0" index="0" speed="60.00" length="33.60" shape="483.20,1488.80 516.80,1488.80"/>
        <lane id=":n22_22_1" index="1" speed="60.00" length="33.60" shape="483.20,1492.00 516.80,1492.00"/>
        <lane id=":n22_22_2" index="2" speed="60.00" length="33.60" shape="483.20,1495.20 516.80,1495.20"/>
        <lane id=":n22_22_3" index="3" speed="60.00" length="33.60" shape="483.20,1498.40 516.80,1498.40"/>
    </edge>
    <edge id=":n22_26" function="internal">
        <lane id=":n22_26_0" index="0" speed="11.36" length="5.01" shape="483.20,1498.40 488.16,1499.11"/>
    </edge>
    <edge id=":n22_27" function="internal">
        <lane id=":n22_27_0" index="0" speed="3.65" length="1.44" shape="483.20,1498.40 484.40,1499.20"/>
    </edge>
    <edge id=":n22_34" function="internal">
        <lane id=":n22_34_0" index="0" speed="11.36" length="24.66" shape="488.16,1499.11 491.25,1499.55 497.00,1503.00 500.45,1508.75 501.60,1516.80"/>
    </edge>
    <edge id=":n22_35" function="internal">
        <lane id=":n22_35_0" index="0" speed="3.65" length="3.23" shape="484.40,1499.20 484.80,1500.00 484.40,1500.80 483.20,1501.60"/>
    </edge>
    <edge id=":n23_0" function="internal">
        <lane id=":n23_0_0" index="0" speed="6.51" length="9.03" shape="988.80,1516.80 988.45,1514.35 987.40,1512.60 985.65,1511.55 983.20,1511.20"/>
    </edge>
    <edge id=":n23_1" function="internal">
        <lane id=":n23_1_0" index="0" speed="60.00" length="33.60" shape="988.80,1516.80 988.80,1483.20"/>
        <lane id=":n23_1_1" index="1" speed="60.00" length="33.60" shape="992.00,1516.80 992.00,1483.20"/>
        <lane id=":n23_1_2" index="2" speed="60.00" length="33.60" shape="995.20,1516.80 995.20,1483.20"/>
        <lane id=":n23_1_3" index="3" speed="60.00" length="33.60" shape="998.40,1516.80 998.40,1483.20"/>
    </edge>
    <edge id=":n23_5" function="internal">
        <lane id=":n23_5_0" index="0" speed="11.36" length="5.01" shape="998.40,1516.80 999.11,1511.84"/>
    </edge>
    <edge id=":n23_6" function="internal">
        <lane id=":n23_6_0" index="0" speed="3.65" length="1.44" shape="998.40,1516.80 999.20,1515.60"/>
    </edge>
    <edge id=":n23_28" function="internal">
        <lane id=":n23_28_0" index="0" speed="11.36" length="24.66" shape="999.11,1511.84 999.55,1508.75 1003.00,1503.00 1008.75,1499.55 1016.80,1498.40"/>
    </edge>
    <edge id=":n23_29" function="internal">
        <lane id=":n23_29_0" index="0" speed="3.65" length="3.23" shape="999.20,1515.60 1000.00,1515.20 1000.80,1515.60 1001.60,1516.80"/>
    </edge>
    <edge id=":n23_7" function="internal">
        <lane id=":n23_7_0" index="0" speed="6.51" length="9.03" shape="1016.80,1511.20 1014.35,1511.55 1012.60,1512.60 1011.55,1514.35 1011.20,1516.80"/>
    </edge>
    <edge id=":n23_8" function="internal">
        <lane id=":n23_8_0" index="0" speed="60.00" length="33.60" shape="1016.80,1511.20 983.20,1511.20"/>
        <lane id=":n23_8_1" index="1" speed="60.00" length="33.60" shape="1016.80,1508.00 983.20,1508.00"/>
        <lane id=":n23_8_2" index="2" speed="60.00" length="33.60" shape="1016.80,1504.80 983.20,1504.80"/>
        <lane id=":n23_8_3" index="3" speed="60.00" length="33.60" shape="1016.80,1501.60 983.20,1501.60"/>
    </edge>
    <edge id=":n23_12" function="internal">
        <lane id=":n23_12_0" index="0" speed="11.36" length="5.01" shape="1016.80,1501.60 1011.84,1500.89"/>
    </edge>
    <edge id=":n23_13" function="internal">
        <lane id=":n23_13_0" index="0" speed="3.65" length="1.44" shape="1016.80,1501.60 1015.60,1500.80"/>
    </edge>
    <edge id=":n23_30" function="internal">
        <lane id=":n23_30_0" index="0" speed="11.36" length="24.66" shape="1011.84,1500.89 1008.75,1500.45 1003.00,1497.00 999.55,1491.25 998.40,1483.20"/>
    </edge>
    <edge id=":n23_31" function="internal">
        <lane id=":n23_31_0" index="0" speed="3.65" length="3.23" shape="1015.60,1500.80 1015.20,1500.00 1015.60,1499.20 1016.80,1498.40"/>
    </edge>
    <edge id=":n23_14" function="internal">
        <lane id=":n23_14_0" index="0" speed="6.51" length="9.03" shape="1011.20,1483.20 1011.55,1485.65 1012.60,1487.40 1014.35,1488.45 1016.80,1488.80"/>
    </edge>
    <edge id=":n23_15" function="internal">
        <lane id=":n23_15_0" index="0" speed="60.00" length="33.60" shape="1011.20,1483.20 1011.20,1516.80"/>
        <lane id=":n23_15_1" index="1" speed="60.00" length="33.60" shape="1008.00,1483.20 1008.00,1516.80"/>
        <lane id=":n23_15_2" index="2" speed="60.00" length="33.60" shape="1004.80,1483.20 1004.80,1516.80"/>
        <lane id=":n23_15_3" index="3" speed="60.00" length="33.60" shape="1001.60,1483.20 1001.60,1516.80"/>
    </edge>
    <edge id=":n23_19" function="internal">
        <lane id=":n23_19_0" index="0" speed="11.36" length="5.01" shape="1001.60,1483.20 1000.89,1488.16"/>
    </edge>
    <edge id=":n23_20" function="internal">
        <lane id=":n23_20_0" index="0" speed="3.65" length="1.44" shape="1001.60,1483.20 1000.80,1484.40"/>
    </edge>
    <edge id=":n23_32" function="internal">
        <lane id=":n23_32_0" index="0" speed="11.36" length="24.66" shape="1000.89,1488.16 1000.45,1491.25 997.00,1497.00 991.25,1500.45 983.20,1501.60"/>
    </edge>
    <edge id=":n23_33" function="internal">
        <lane id=":n23_33_0" index="0" speed="3.65" length="3.23" shape="1000.80,1484.40 1000.00,1484.80 999.20,1484.40 998.40,1483.20"/>
    </edge>
    <edge id=":n23_21" function="internal">
        <lane id=":n23_21_0" index="0" speed="6.51" length="9.03" shape="983.20,1488.80 985.65,1488.45 987.40,1487.40 988.45,1485.65 988.80,1483.20"/>
    </edge>
    <edge id=":n23_22" function="internal">
        <lane id=":n23_22_0" index="0" speed="60.00" length="33.60" shape="983.20,1488.80 1016.80,1488.80"/>
        <lane id=":n23_22_1" index="1" speed="60.00" length="33.60" shape="983.20,1492.00 1016.80,1492.00"/>
        <lane id=":n23_22_2" index="2" speed="60.00" length="33.60" shape="983.20,1495.20 1016.80,1495.20"/>