<?xml version='1.0' encoding='utf-8'?>
<edges>
  <edge from="n11" to="n12" id="n11ton12" type="normal" />
  <edge from="n12" to="n11" id="n12ton11" type="normal" />
  <edge from="n11" to="n21" id="n11ton21" type="normal" />
  <edge from="n21" to="n11" id="n21ton11" type="normal" />
  <edge from="n12" to="n13" id="n12ton13" type="normal" />
  <edge from="n13" to="n12" id="n13ton12" type="normal" />
  <edge from="n12" to="n22" id="n12ton22" type="normal" />
  <edge from="n22" to="n12" id="n22ton12" type="normal" />
  <edge from="n13" to="n14" id="n13ton14" type="normal" />
  <edge from="n14" to="n13" id="n14ton13" type="normal" />
  <edge from="n13" to="n23" id="n13ton23" type="normal" />
  <edge from="n23" to="n13" id="n23ton13" type="normal" />
  <edge from="n14" to="n15" id="n14ton15" type="normal" />
  <edge from="n15" to="n14" id="n15ton14" type="normal" />
  <edge from="n14" to="n24" id="n14ton24" type="normal" />
  <edge from="n24" to="n14" id="n24ton14" type="normal" />
  <edge from="n15" to="n25" id="n15ton25" type="normal" />
  <edge from="n25" to="n15" id="n25ton15" type="normal" />
  <edge from="n21" to="n22" id="n21ton22" type="normal" />
  <edge from="n22" to="n21" id="n22ton21" type="normal" />
  <edge from="n21" to="n31" id="n21ton31" type="normal" />
  <edge from="n31" to="n21" id="n31ton21" type="normal" />
  <edge from="n22" to="n23" id="n22ton23" type="normal" />
  <edge from="n23" to="n22" id="n23ton22" type="normal" />
  <edge from="n22" to="n32" id="n22ton32" type="normal" />
  <edge from="n32" to="n22" id="n32ton22" type="normal" />
  <edge from="n23" to="n24" id="n23ton24" type="normal" />
  <edge from="n24" to="n23" id="n24ton23" type="normal" />
  <edge from="n23" to="n33" id="n23ton33" type="normal" />
  <edge from="n33" to="n23" id="n33ton23" type="normal" />
  <edge from="n24" to="n25" id="n24ton25" type="normal" />
  <edge from="n25" to="n24" id="n25ton24" type="normal" />
  <edge from="n24" to="n34" id="n24ton34" type="normal" />
  <edge from="n34" to="n24" id="n34ton24" type="normal" />
  <edge from="n25" to="n35" id="n25ton35" type="normal" />
  <edge from="n35" to="n25" id="n35ton25" type="normal" />
  <edge from="n31" to="n32" id="n31ton32" type="normal" />
  <edge from="n32" to="n31" id="n32ton31" type="normal" />
  <edge from="n31" to="n41" id="n31ton41" type="normal" />
  <edge from="n41" to="n31" id="n41ton31" type="normal" />
  <edge from="n32" to="n33" id="n32ton33" type="normal" />
  <edge from="n33" to="n32" id="n33ton32" type="normal" />
  <edge from="n32" to="n42" id="n32ton42" type="normal" />
  <edge from="n42" to="n32" id="n42ton32" type="normal" />
  <edge from="n33" to="n34" id="n33ton34" type="normal" />
  <edge from="n34" to="n33" id="n34ton33" type="normal" />
  <edge from="n33" to="n43" id="n33ton43" type="normal" />
  <edge from="n43" to="n33" id="n43ton33" type="normal" />
  <edge from="n34" to="n35" id="n34ton35" type="normal" />
  <edge from="n35" to="n34" id="n35ton34" type="normal" />
  <edge from="n34" to="n44" id="n34ton44" type="normal" />
  <edge from="n44" to="n34" id="n44ton34" type="normal" />
  <edge from="n35" to="n45" id="n35ton45" type="normal" />
  <edge from="n45" to="n35" id="n45ton35" type="normal" />
  <edge from="n41" to="n42" id="n41ton42" type="normal" />
  <edge from="n42" to="n41" id="n42ton41" type="normal" />
  <edge from="n41" to="n51" id="n41ton51" type="normal" />
  <edge from="n51" to="n41" id="n51ton41" type="normal" />
  <edge from="n42" to="n43" id="n42ton43" type="normal" />
  <edge from="n43" to="n42" id="n43ton42" type="normal" />
  <edge from="n42" to="n52" id="n42ton52" type="normal" />
  <edge from="n52" to="n42" id="n52ton42" type="normal" />
  <edge from="n43" to="n44" id="n43ton44" type="normal" />
  <edge from="n44" to="n43" id="n44ton43" type="normal" />
  <edge from="n43" to="n53" id="n43ton53" type="normal" />
  <edge from="n53" to="n43" id="n53ton43" type="normal" />
  <edge from="n44" to="n45" id="n44ton45" type="normal" />
  <edge from="n45" to="n44" id="n45ton44" type="normal" />
  <edge from="n44" to="n54" id="n44ton54" type="normal" />
  <edge from="n54" to="n44" id="n54ton44" type="normal" />
  <edge from="n45" to="n55" id="n45ton55" type="normal" />
  <edge from="n55" to="n45" id="n55ton45" type="normal" />
  <edge from="n51" to="n52" id="n51ton52" type="normal" />
  <edge from="n52" to="n51" id="n52ton51" type="normal" />
  <edge from="n52" to="n53" id="n52ton53" type="normal" />
  <edge from="n53" to="n52" id="n53ton52" type="normal" />
  <edge from="n53" to="n54" id="n53ton54" type="normal" />
  <edge from="n54" to="n53" id="n54ton53" type="normal" />
  <edge from="n54" to="n55" id="n54ton55" type="normal" />
  <edge from="n55" to="n54" id="n55ton54" type="normal" />
</edges>
